Info: SIMULATION PARAMETERS:
Info: TIMESTEP               0.5
Info: NUMBER OF STEPS        40000
Info: STEPS PER CYCLE        20
Info: PERIODIC CELL BASIS 1  92 0 0
Info: PERIODIC CELL BASIS 2  0 100 0
Info: PERIODIC CELL BASIS 3  0 0 90
Info: PERIODIC CELL CENTER   4.315 3.079 0.347
Info: WRAPPING ALL CLUSTERS AROUND PERIODIC BOUNDARIES ON OUTPUT.
Info: FIRST LDB TIMESTEP     100
Info: LAST LDB TIMESTEP     -1
Info: HOM BACKGROUND SCALING 1
Info: PME BACKGROUND SCALING 1
Info: MIN ATOMS PER PATCH    40
Info: EMPTY PATCH LOAD       40 ATOMS
Info: INITIAL TEMPERATURE    298.15
Info: CENTER OF MASS MOVING INITIALLY? NO
Info: DIELECTRIC             1
Info: EXCLUDE                SCALED ONE-FOUR
Info: 1-4 ELECTROSTATICS SCALED BY 1
Info: MODIFIED 1-4 VDW PARAMETERS WILL BE USED
Info: DCD FILENAME           final_eq.dcd
Info: DCD FREQUENCY          200
Info: DCD FIRST STEP         200
Info: DCD FILE WILL CONTAIN UNIT CELL DATA
Info: NO EXTENDED SYSTEM TRAJECTORY OUTPUT
Info: NO VELOCITY DCD OUTPUT
Info: NO FORCE DCD OUTPUT
Info: OUTPUT FILENAME        final_eq
Info: RESTART FILENAME       final_eq.restart
Info: RESTART FREQUENCY      100
Info: SWITCHING ACTIVE
Info: SWITCHING ON           10
Info: SWITCHING OFF          12
Info: PAIRLIST DISTANCE      14
Info: PAIRLIST SHRINK RATE   0.01
Info: PAIRLIST GROW RATE     0.01
Info: PAIRLIST TRIGGER       0.3
Info: PAIRLISTS PER CYCLE    2
Info: PAIRLISTS ENABLED
Info: MARGIN                 0.495
Info: HYDROGEN GROUP CUTOFF  2.5
Info: PATCH DIMENSION        16.995
Info: ENERGY OUTPUT STEPS    100
Info: ENERGY EVALUATION STEPS    100
Info: OUTPUT ENERGY PRECISION 4
Info: CROSSTERM ENERGY INCLUDED IN DIHEDRAL
Info: TIMING OUTPUT STEPS    1000
Info: PRESSURE OUTPUT STEPS  100
Info: LANGEVIN DYNAMICS ACTIVE
Info: LANGEVIN TEMPERATURE   298.15
Info: LANGEVIN USING BBK INTEGRATOR
Info: LANGEVIN DAMPING COEFFICIENT IS 1 INVERSE PS
Info: LANGEVIN DYNAMICS NOT APPLIED TO HYDROGENS
Info: LANGEVIN PISTON PRESSURE CONTROL ACTIVE
Info:        TARGET PRESSURE IS 1.01325 BAR
Info:     OSCILLATION PERIOD IS 100 FS
Info:             DECAY TIME IS 50 FS
Info:     PISTON TEMPERATURE IS 298.15 K
Info:       PRESSURE CONTROL IS GROUP-BASED
Info:    INITIAL STRAIN RATE IS 0 0 0
Info:       CELL FLUCTUATION IS ISOTROPIC
Info: PARTICLE MESH EWALD (PME) ACTIVE
Info: PME TOLERANCE               1e-06
Info: PME EWALD COEFFICIENT       0.257952
Info: PME INTERPOLATION ORDER     4
Info: PME GRID DIMENSIONS         96 108 96
Info: PME MAXIMUM GRID SPACING    1
Info: PME CALCULATION WILL BE PERFORMED ON GPU
Info: FULL ELECTROSTATIC EVALUATION FREQUENCY      2
Info: USING VERLET I (r-RESPA) MTS SCHEME.
Info: C1 SPLITTING OF LONG RANGE ELECTROSTATICS
Info: PLACING ATOMS IN PATCHES BY HYDROGEN GROUPS
Info: RIGID BONDS TO HYDROGEN : ALL
Info:         ERROR TOLERANCE : 1e-08
Info:          MAX ITERATIONS : 100
Info: RIGID WATER USING SETTLE ALGORITHM
Info: RANDOM NUMBER SEED     1747471792
Info: USE HYDROGEN BONDS?    NO
Info: COORDINATE PDB         final_min.coor
Info: STRUCTURE FILE         /data01/genbiolab/jiyun/practice/MD/MD_config_generator/practice/9BWZ/9BWZ_ionized.psf
Info: PARAMETER file: CHARMM format!
Info: PARAMETERS             /data01/genbiolab/jiyun/practice/MD/CHARMM_ForceFields/toppar/par_all36m_prot.prm
Info: PARAMETERS             /data01/genbiolab/jiyun/practice/MD/CHARMM_ForceFields/toppar/par_hbond.inp
Info: PARAMETERS             /data01/genbiolab/jiyun/practice/MD/CHARMM_ForceFields/toppar/par_all35_ethers.prm
Info: PARAMETERS             /data01/genbiolab/jiyun/practice/MD/CHARMM_ForceFields/toppar/par_all36_cgenff.prm
Info: PARAMETERS             /data01/genbiolab/jiyun/practice/MD/CHARMM_ForceFields/toppar/par_all36_lipid.prm
Info: PARAMETERS             /data01/genbiolab/jiyun/practice/MD/CHARMM_ForceFields/toppar/par_all36_na.prm
Info: PARAMETERS             /data01/genbiolab/jiyun/practice/MD/CHARMM_ForceFields/toppar/par_all36_carb.prm
Info: PARAMETERS             /data01/genbiolab/jiyun/practice/MD/CHARMM_ForceFields/toppar/toppar_water_ions_namd.str
Info: USING ARITHMETIC MEAN TO COMBINE L-J SIGMA PARAMETERS
Info: SKIPPING rtf SECTION IN STREAM FILE
Info: SUMMARY OF PARAMETERS:
Info: 1137 BONDS
Info: 3735 ANGLES
Info: 10356 DIHEDRAL
Info: 271 IMPROPER
Info: 6 CROSSTERM
Info: 373 VDW
Info: 80 VDW_PAIRS
Info: 0 NBTHOLE_PAIRS
Info: STRUCTURE SUMMARY:
Info: 66863 ATOMS
Info: 47177 BONDS
Info: 33842 ANGLES
Info: 20723 DIHEDRALS
Info: 1430 IMPROPERS
Info: 496 CROSSTERMS
Info: 0 EXCLUSIONS
Info: 62792 RIGID BONDS
Info: 137797 DEGREES OF FREEDOM
Info: 23702 HYDROGEN GROUPS
Info: 4 ATOMS IN LARGEST HYDROGEN GROUP
Info: 23702 MIGRATION GROUPS
Info: 4 ATOMS IN LARGEST MIGRATION GROUP
Info: TOTAL MASS = 413689 amu
Info: TOTAL CHARGE = 6.09085e-06 e
Info: MASS DENSITY = 0.829666 g/cm^3
Info: ATOM DENSITY = 0.0807524 atoms/A^3
Info: ADDED 101480 IMPLICIT EXCLUSIONS
Info: NONBONDED TABLE R-SQUARED SPACING: 0.0625
Info: NONBONDED TABLE SIZE: 769 POINTS
Info: REMOVING COM VELOCITY 0.00580131 0.0354843 -0.0192014
Info: Use 3D box decompostion in PME FFT.
Info: Updated CUDA force table with 4096 elements.
Info: Updated CUDA LJ table with 373 x 373 elements.
Info: Found 333 unique exclusion lists needing 1100 bytes
ETITLE: TS BOND ANGLE DIHED IMPRP ELECT VDW BOUNDARY MISC KINETIC TOTAL TEMP POTENTIAL TOTAL3 TEMPAVG PRESSURE GPRESSURE VOLUME PRESSAVG GPRESSAVG
ENERGY: 0 528.5383 1480.9137 4130.1781 60.6253 -309958.2655 35647.9165 0.0000 0.0000 40708.5699 -227401.5236 297.3285 -268110.0935 -227401.0607 297.3285 490.3492 531.3055 828000.0000 490.3492 531.3055
ENERGY: 8000 1528.0283 4086.5702 4687.0554 243.3725 -260150.9034 21887.7250 0.0000 0.0000 35766.2242 -191951.9278 261.2304 -227718.1520 -191941.4963 261.5570 44.6450 78.1753 753362.2379 -12.2404 -12.0800
ENERGY: 16000 1596.7187 4295.7156 4728.1926 272.7260 -252795.2033 19689.4948 0.0000 0.0000 39436.1686 -182776.1871 288.0350 -222212.3557 -182769.4731 287.6685 85.5629 111.5481 710512.8985 -4.5809 -4.7788
ENERGY: 24000 1581.8244 4386.2422 4692.5444 265.2591 -250930.7894 18781.7761 0.0000 0.0000 40566.9165 -180656.2266 296.2938 -221223.1432 -180646.2042 296.9561 26.8188 57.8705 679325.8322 -7.4011 -7.3920
ENERGY: 32000 1601.8924 4328.6706 4708.5131 301.8828 -250555.4258 18476.9796 0.0000 0.0000 40597.2958 -180540.1915 296.5157 -221137.4873 -180532.6872 297.5926 -28.5487 1.6150 667073.4075 1.1687 1.1221
ENERGY: 40000 1640.0449 4338.2042 4671.3313 267.6018 -251321.7475 18724.5564 0.0000 0.0000 40807.4281 -180872.5809 298.0505 -221680.0090 -180865.2278 297.9584 -147.4857 -96.3908 659566.7819 -4.3844 -3.3940
